Version 4.1
SHEET 1 1332 680
WIRE 608 -464 592 -464
WIRE 656 -464 608 -464
WIRE 784 -464 736 -464
WIRE 832 -464 784 -464
WIRE 960 -464 912 -464
WIRE 1008 -464 960 -464
WIRE 1152 -464 1088 -464
WIRE 1184 -464 1152 -464
WIRE 1328 -464 1264 -464
WIRE 608 -400 592 -400
WIRE 784 -400 784 -464
WIRE 784 -400 608 -400
WIRE 288 -368 240 -368
WIRE 608 -336 592 -336
WIRE 960 -336 960 -464
WIRE 960 -336 608 -336
WIRE 608 -272 592 -272
WIRE 1152 -272 1152 -464
WIRE 1152 -272 608 -272
WIRE 384 -32 384 -48
WIRE 96 16 32 16
WIRE 240 16 240 -368
WIRE 240 16 176 16
WIRE 304 16 240 16
WIRE 1328 32 1328 -464
WIRE 1328 32 368 32
WIRE 32 48 32 16
WIRE 304 48 224 48
WIRE 224 80 224 48
WIRE 224 192 224 160
FLAG 224 192 0
FLAG 224 48 in
FLAG 32 48 0
FLAG 16 -176 0
FLAG 128 -176 0
FLAG 16 -256 +Vdd
FLAG 128 -256 -Vdd
FLAG 384 -32 0
FLAG 512 -48 -Vdd
FLAG 448 -560 +Vdd
FLAG 288 -192 +Vdd
FLAG 608 -144 +Vdd
FLAG 608 -208 +Vdd
SYMBOL voltage 224 64 R0
WINDOW 123 24 124 Left 2
WINDOW 39 0 0 Left 0
SYMATTR Value2 AC 1
SYMATTR InstName Vin
SYMATTR Value ""
SYMBOL res 192 0 R90
WINDOW 0 0 56 VBottom 2
WINDOW 3 32 56 VTop 2
SYMATTR InstName Rg
SYMATTR Value 1k
SYMBOL res 752 -480 R90
WINDOW 0 0 56 VBottom 2
WINDOW 3 32 56 VTop 2
SYMATTR InstName Rf4
SYMATTR Value 2.33k
SYMBOL res 928 -480 R90
WINDOW 0 0 56 VBottom 2
WINDOW 3 32 56 VTop 2
SYMATTR InstName Rf3
SYMATTR Value 1.48k
SYMBOL res 1104 -480 R90
WINDOW 0 0 56 VBottom 2
WINDOW 3 32 56 VTop 2
SYMATTR InstName Rf2
SYMATTR Value 920
SYMBOL res 1280 -480 R90
WINDOW 0 0 56 VBottom 2
WINDOW 3 32 56 VTop 2
SYMATTR InstName Rf1
SYMATTR Value 580
SYMBOL voltage 128 -272 R0
SYMATTR InstName V1
SYMATTR Value -5
SYMBOL voltage 16 -272 R0
SYMATTR InstName V2
SYMATTR Value 5
SYMBOL Switches\\ADG1604 448 -272 M0
SYMATTR InstName U2
SYMBOL OpAmps\\opamp 336 -32 R0
SYMATTR InstName U1
SYMATTR SpiceLine2 GBW=1.8Meg
TEXT 672 -232 Left 2 !.lib opamp.sub
TEXT 672 -200 Left 2 !.ac dec 100 1 10Meg
TEXT 672 -168 Left 2 ;.op
